data original/D032602/Lines.dss
New Line.line0 Units=km Length=0.04623 bus1=n325503.1.2.3 bus2=n325504.1.2.3 switch=n enabled=y phases=3 Linecode=LV_240AL_XLPE_3
New Line.line1 Units=km Length=0.001 bus1=n325504.1.2.3 bus2=n325505.1.2.3 switch=n enabled=y phases=3 Linecode=66_HDCU_(19/2.11)_3
New Line.line10 Units=km Length=0.001 bus1=n325513.1.2.3 bus2=n677376.1.2.3 switch=n enabled=y phases=3 Linecode=66_HDCU_(19/2.11)_3
New Line.line11 Units=km Length=0.04425 bus1=n325506.1.2.3 bus2=n325514.1.2.3 switch=n enabled=y phases=3 Linecode=66_HDCU_(19/2.11)_3
New Line.line12 Units=km Length=0.02333 bus1=n325514.1.2.3 bus2=n325515.1.2.3 switch=n enabled=y phases=3 Linecode=66_HDCU_(19/2.11)_3
New Line.line13 Units=km Length=0.04219 bus1=n325515.1.2.3 bus2=n325516.1.2.3 switch=n enabled=y phases=3 Linecode=66_HDCU_(19/2.11)_3
New Line.line14 Units=km Length=0.04125 bus1=n325516.1.2.3 bus2=n325517.1.2.3 switch=n enabled=y phases=3 Linecode=Twin_95AL_ABC_3
New Line.line15 Units=km Length=0.0367 bus1=n325517.1.2.3 bus2=n325518.1.2.3 switch=n enabled=y phases=3 Linecode=66_HDCU_(19/2.11)_3
New Line.line16 Units=km Length=0.03905 bus1=n325518.1.2.3 bus2=n325519.1.2.3 switch=n enabled=y phases=3 Linecode=66_HDCU_(19/2.11)_3
New Line.line17 Units=km Length=0.0134 bus1=n325519.1.2.3 bus2=n325520.1.2.3 switch=n enabled=y phases=3 Linecode=66_HDCU_(19/2.11)_3
New Line.line18 Units=km Length=0.001 bus1=n325520.1.2.3 bus2=n325521.1.2.3 switch=n enabled=y phases=3 Linecode=66_HDCU_(19/2.11)_3
New Line.line19 Units=km Length=0.0373 bus1=n325521.1.2.3 bus2=n325522.1.2.3 switch=n enabled=y phases=3 Linecode=unknown_linecode_3
New Line.line2 Units=km Length=0.001 bus1=n325505.1.2.3 bus2=n325506.1.2.3 switch=n enabled=y phases=3 Linecode=66_HDCU_(19/2.11)_3
New Line.line20 Units=km Length=0.01315 bus1=n325522.1.2.3 bus2=n677377.1.2.3 switch=n enabled=y phases=3 Linecode=unknown_linecode_3
New Line.line21 Units=km Length=0.0016899999999999999 bus1=n325521.1.2.3 bus2=n677378.1.2.3 switch=n enabled=y phases=3 Linecode=66_HDCU_(19/2.11)_3
New Line.line22 Units=km Length=0.041490000000000006 bus1=n325517.1.2.3 bus2=n677379.1.2.3 switch=n enabled=y phases=3 Linecode=Twin_95AL_ABC_3
New Line.line23 Units=km Length=0.013630000000000001 bus1=n325516.1.2.3 bus2=n677380.1.2.3 switch=n enabled=y phases=3 Linecode=unknown_linecode_3
New Line.line24 Units=km Length=0.02262 bus1=n325517.1.2.3 bus2=n325523.1.2.3 switch=n enabled=y phases=3 Linecode=Twin_95AL_ABC_3
New Line.line25 Units=km Length=0.001 bus1=n325523.1.2.3 bus2=n677381.1.2.3 switch=n enabled=y phases=3 Linecode=unknown_linecode_3
New Line.line26 Units=km Length=0.00404 bus1=n325514.1.2.3 bus2=n325524.1.2.3 switch=n enabled=y phases=3 Linecode=66_HDCU_(19/2.11)_3
New Line.line27 Units=km Length=0.001 bus1=n325524.1.2.3 bus2=n677382.1.2.3 switch=n enabled=y phases=3 Linecode=66_HDCU_(19/2.11)_3
New Line.line28 Units=km Length=0.04501 bus1=n325522.1.2.3 bus2=n269382.1.2.3 switch=n enabled=y phases=3 Linecode=unknown_linecode_3
New Line.line29 Units=km Length=0.0011 bus1=n269382.1.2.3 bus2=n652086.1.2.3 switch=n enabled=y phases=3 Linecode=unknown_linecode_3
New Line.line3 Units=km Length=0.02017 bus1=n325506.1.2.3 bus2=n325507.1.2.3 switch=n enabled=y phases=3 Linecode=66_HDCU_(19/2.11)_3
New Line.line4 Units=km Length=0.03135 bus1=n325507.1.2.3 bus2=n325508.1.2.3 switch=n enabled=y phases=3 Linecode=66_HDCU_(19/2.11)_3
New Line.line5 Units=km Length=0.03732 bus1=n325508.1.2.3 bus2=n325509.1.2.3 switch=n enabled=y phases=3 Linecode=66_HDCU_(19/2.11)_3
New Line.line6 Units=km Length=0.037380000000000004 bus1=n325509.1.2.3 bus2=n325510.1.2.3 switch=n enabled=y phases=3 Linecode=66_HDCU_(19/2.11)_3
New Line.line7 Units=km Length=0.02997 bus1=n325510.1.2.3 bus2=n325511.1.2.3 switch=n enabled=y phases=3 Linecode=66_HDCU_(19/2.11)_3
New Line.line8 Units=km Length=0.010539999999999999 bus1=n325511.1.2.3 bus2=n325512.1.2.3 switch=n enabled=y phases=3 Linecode=66_HDCU_(19/2.11)_3
New Line.line9 Units=km Length=0.0313 bus1=n325512.1.2.3 bus2=n325513.1.2.3 switch=n enabled=y phases=3 Linecode=66_HDCU_(19/2.11)_3
